Circuit: * D:\Juan Diego\Documents\UTN\5to_-_EAIII\Proyecto\Spice\Modelo_eléctrico_medicion.asc

WARNING: Node N004 is floating.
WARNING: Node N005 is floating.
WARNING: Node N006 is floating.


Date: Mon Jul 19 22:21:27 2021
Total elapsed time: 0.033 seconds.

tnom = 27
temp = 27
method = trap
totiter = 0
traniter = 0
tranpoints = 0
accept = 0
rejected = 0
matrix size = 8
fillins = 2
solver = Normal

