Circuit: * D:\Juan Diego\Documents\UTN\5to_-_EAIII\Proyecto\Spice\Modelo_eléctrico_medicion_junto.asc

WARNING: Node N004 is floating.
WARNING: Node N003 is floating.


Date: Mon Jul 19 22:30:33 2021
Total elapsed time: 0.026 seconds.

tnom = 27
temp = 27
method = trap
totiter = 0
traniter = 0
tranpoints = 0
accept = 0
rejected = 0
matrix size = 6
fillins = 1
solver = Normal

