Circuit: * C:\Users\Alejandro\Google Drive\UTN_2021_y_English\EA3\Proyecto 2021\Gavegno-Morandi-Scarini-Sobral\Proyecto-EA3\Spice\Modelo_eléctrico.asc

WARNING: Node N004 is floating.
WARNING: Node N005 is floating.
WARNING: Node N006 is floating.

WARNING: Less than two connections to node N006.  This node is used by C4.

Date: Wed Jul 21 20:07:27 2021
Total elapsed time: 0.025 seconds.

tnom = 27
temp = 27
method = trap
totiter = 0
traniter = 0
tranpoints = 0
accept = 0
rejected = 0
matrix size = 7
fillins = 1
solver = Normal

