Circuit: * C:\Users\Alejandro\Google Drive\UTN_2021_y_English\EA3\Proyecto 2021\Gavegno-Morandi-Scarini-Sobral\Proyecto-EA3\Spice\VCO Colpitt.asc

WARNING: Node OUT is floating.

WARNING: Less than two connections to node OUT.  This node is used by C1.
Direct Newton iteration for .op point succeeded.

Date: Wed Jul 21 20:51:31 2021
Total elapsed time: 0.177 seconds.

tnom = 27
temp = 27
method = modified trap
totiter = 10080
traniter = 10075
tranpoints = 3097
accept = 2291
rejected = 806
matrix size = 11
fillins = 4
solver = Normal
Matrix Compiler1: 968 bytes object code size  0.2/0.1/[0.1]
Matrix Compiler2: off  [0.1]/0.1/0.1

